Circuit: * /Users/MichaelLin/Documents/FA-2013-School/EE105/MiniProject/Design1v2.asc

WARNING: Node NC_01 is floating.

WARNING: Less than two connections to node NC_01.  This node is used by C1.
Direct Newton iteration for .op point succeeded.

Date: Mon Dec  9 12:03:58 2013
Total elapsed time: 0.232 seconds.

tnom = 27
temp = 27
method = trap
totiter = 8
traniter = 0
tranpoints = 0
accept = 0
rejected = 0
matrix size = 90
fillins = 24
solver = Normal
Matrix Compiler1:     672 opcodes
Matrix Compiler2:     738 opcodes

