Circuit: * /Users/MichaelLin/Documents/FA-2013-School/EE105/MiniProject/Design1v2.asc

Direct Newton iteration for .op point succeeded.

Date: Mon Dec  9 14:13:12 2013
Total elapsed time: 0.050 seconds.

tnom = 27
temp = 27
method = trap
totiter = 8
traniter = 0
tranpoints = 0
accept = 0
rejected = 0
matrix size = 89
fillins = 24
solver = Normal
Matrix Compiler1:     671 opcodes
Matrix Compiler2:     734 opcodes

