Circuit: * /Users/MichaelLin/Documents/FA-2013-School/EE105/MiniProject/Design1v2.asc

Direct Newton iteration for .op point succeeded.

Date: Mon Dec  9 00:38:23 2013
Total elapsed time: 0.053 seconds.

tnom = 27
temp = 27
method = trap
totiter = 13
traniter = 0
tranpoints = 0
accept = 0
rejected = 0
matrix size = 76
fillins = 18
solver = Normal
Matrix Compiler1:     562 opcodes
Matrix Compiler2:     622 opcodes

