Circuit: * /Users/MichaelLin/Documents/FA-2013-School/EE105/MiniProject/Design1v2.asc

Direct Newton iteration for .op point succeeded.

Date: Sun Dec  8 17:32:09 2013
Total elapsed time: 0.052 seconds.

tnom = 27
temp = 27
method = trap
totiter = 8
traniter = 0
tranpoints = 0
accept = 0
rejected = 0
matrix size = 76
fillins = 18
solver = Normal
Matrix Compiler1:     562 opcodes
Matrix Compiler2:     622 opcodes

